
Spectre (R) Circuit Simulator
Version 18.1.0.421.isr9 32bit -- 17 Jul 2019
Copyright (C) 1989-2019 Cadence Design Systems, Inc. All rights reserved worldwide. Cadence and Spectre are registered trademarks of Cadence Design Systems, Inc. All others are the property of their respective holders.

Includes RSA BSAFE(R) Cryptographic or Security Protocol Software from RSA Security, Inc.

User: acoskuner500   Host: zach-127-11.engr.tamu.edu   HostID: 7D0A22CA   PID: 9238
Memory  available: 548.0120 MB  physical: 16.4832 GB
Linux   : CentOS Linux release 7.9.2009 (Core)
CPU Type: Intel(R) Core(TM) i7-8700T CPU @ 2.40GHz
All processors running at 3815.9 MHz
        Socket: Processors (Hyperthreaded Processor)
        0:       0 (  6 ),  1 (  7 ),  2 (  8 ),  3 (  9 ),  4 ( 10 )
                 5 ( 11 )
        
System load averages (1min, 5min, 15min) : 1.2 %, 2.7 %, 2.8 %
Hyperthreading is enabled


Simulating `simcap.spi' on zach-127-11.engr.tamu.edu at 6:50:03 PM, Thur Sep 22, 2022 (process id: 9238).
Current working directory: /home/grads/a/acoskuner500/cadence/cellcharacs
Command line:
    /opt/coe/cadence/SPECTRE181/tools.lnx86/bin/spectre simcap.spi

Loading /opt/coe/cadence/SPECTRE181/tools.lnx86/cmi/lib/5.0/libinfineon_sh.so ...
Loading /opt/coe/cadence/SPECTRE181/tools.lnx86/cmi/lib/5.0/libphilips_o_sh.so ...
Loading /opt/coe/cadence/SPECTRE181/tools.lnx86/cmi/lib/5.0/libphilips_sh.so ...
Loading /opt/coe/cadence/SPECTRE181/tools.lnx86/cmi/lib/5.0/libsparam_sh.so ...
Loading /opt/coe/cadence/SPECTRE181/tools.lnx86/cmi/lib/5.0/libstmodels_sh.so ...
Reading file:  /home/grads/a/acoskuner500/cadence/cellcharacs/simcap.spi
Reading file:  /opt/coe/cadence/SPECTRE181/tools.lnx86/spectre/etc/configs/mapsubckt.cfg
Reading file:  /opt/coe/cadence/SPECTRE181/tools.lnx86/spectre/etc/configs/spectre.cfg
Reading file:  /home/grads/a/acoskuner500/cadence/cellcharacs/model18.spi
Reading file:  /home/grads/a/acoskuner500/cadence/cellcharacs/cell18.spi
Time for NDB Parsing: CPU = 62.756 ms, elapsed = 132.298 ms.
Time accumulated: CPU = 94.394 ms, elapsed = 132.303 ms.
Peak resident memory used = 42 Mbytes.

Time for Elaboration: CPU = 12.91 ms, elapsed = 13.7241 ms.
Time accumulated: CPU = 107.453 ms, elapsed = 146.188 ms.
Peak resident memory used = 46.9 Mbytes.


Time for EDB Visiting: CPU = 672 us, elapsed = 675.917 us.
Time accumulated: CPU = 108.272 ms, elapsed = 147.03 ms.
Peak resident memory used = 47.6 Mbytes.


Warning from spectre during initial setup.
    WARNING (CMI-2426): XOR1.M4: `Pdiblc2' = -8.75063e-06 is negative.


Global user options:

Scoped user options:

Circuit inventory:
              nodes 11
            bsim3v3 12    
           resistor 1     
            vsource 3     

Analysis and control statement inventory:
                 ac 1     

Output statements:
             .probe 0     
           .measure 0     
               save 1     


Notice from spectre during initial setup.
    1 resistor is changed to resistance form because its value is less than 'rthresh'.
Warning from spectre during initial setup.
    WARNING (CMI-2426): XOR1.M4: `Pdiblc2' = -8.75063e-06 is negative.

Time for parsing: CPU = 3.829 ms, elapsed = 9.71794 ms.
Time accumulated: CPU = 112.223 ms, elapsed = 156.884 ms.
Peak resident memory used = 49.2 Mbytes.

~~~~~~~~~~~~~~~~~~~~~~
Pre-Simulation Summary
~~~~~~~~~~~~~~~~~~~~~~
~~~~~~~~~~~~~~~~~~~~~~

*******************************************
AC Analysis `Freq': freq = (10 Hz -> 1 GHz)
*******************************************
DC simulation time: CPU = 1.312 ms, elapsed = 672.102 us.

Opening the PSF file simcap.raw/Freq.ac ...
......9......8......7......6......5......4......3......2......1......0
Accumulated DC solution time =            0 s.
Intrinsic ac analysis time =              0 s.
Total time required for ac analysis `Freq': CPU = 9.934 ms, elapsed = 6.92987 ms.
Time accumulated: CPU = 130.492 ms, elapsed = 169.1 ms.
Peak resident memory used = 50.9 Mbytes.


Aggregate audit (6:50:03 PM, Thur Sep 22, 2022):
Time used: CPU = 136 ms, elapsed = 173 ms, util. = 78.7%.
Time spent in licensing: elapsed = 21.6 ms, percentage of total = 12.5%.
Peak memory used = 51.5 Mbytes.
Simulation started at: 6:50:03 PM, Thur Sep 22, 2022, ended at: 6:50:03 PM, Thur Sep 22, 2022, with elapsed time (wall clock): 173 ms.
spectre completes with 0 errors, 2 warnings, and 2 notices.
