Spectre (R) Circuit Simulator
Version 18.1.0.421.isr9 64bit -- 17 Jul 2019
Simulating `input.scs' on zach-127-12.engr.tamu.edu at 4:02:51 PM, Thur Oct 6, 2022 (process id: 21098).
H = mpsImport( "spectre" "ipi" "v0.0" ?session "spectre3_4340_5" )
H->sclSetResultDir( "../psf" )
H->sclRun( "all" )
sclCkt0xa377bf0 = H->sclGetCircuit(  "" )
H->sclQuit(  )
