Spectre (R) Circuit Simulator
Version 18.1.0.421.isr9 64bit -- 17 Jul 2019
Simulating `input.scs' on zach-127-12.engr.tamu.edu at 5:39:26 PM, Thur Oct 6, 2022 (process id: 27764).
H = mpsImport( "spectre" "ipi" "v0.0" ?session "spectre7_4340_12" )
H->sclSetResultDir( "../psf" )
H->sclRun( "all" )
sclCkt0x99e2bf0 = H->sclGetCircuit(  "" )
H->sclQuit(  )
