Spectre (R) Circuit Simulator
Version 18.1.0.421.isr9 64bit -- 17 Jul 2019
Simulating `input.scs' on zach-127-28.engr.tamu.edu at 7:18:15 PM, Fri Oct 28, 2022 (process id: 13761).
H = mpsImport( "spectre" "ipi" "v0.0" ?session "spectre7_4684_29" )
H->sclSetResultDir( "../psf" )
H->sclRun( "all" )
sclCkt0xa53dbf0 = H->sclGetCircuit(  "" )
sclParam0xa53dbf0 = H->sclGetParameter( sclCkt0xa53dbf0 "delay" )
H->sclSetAttribute( sclParam0xa53dbf0 "value" "9.81e-09" )
H->sclSetResultDir( "../psf" )
H->sclRun( "all" )
sclCkt0xa53dbf0 = H->sclGetCircuit(  "" )
sclParam0xa53dbf1 = H->sclGetParameter( sclCkt0xa53dbf0 "delay" )
H->sclSetAttribute( sclParam0xa53dbf1 "value" "9.82e-09" )
H->sclSetResultDir( "../psf" )
H->sclRun( "all" )
sclCkt0xa53dbf0 = H->sclGetCircuit(  "" )
sclParam0xa53dbf2 = H->sclGetParameter( sclCkt0xa53dbf0 "delay" )
H->sclSetAttribute( sclParam0xa53dbf2 "value" "9.83e-09" )
H->sclSetResultDir( "../psf" )
H->sclRun( "all" )
sclCkt0xa53dbf0 = H->sclGetCircuit(  "" )
sclParam0xa53dbf3 = H->sclGetParameter( sclCkt0xa53dbf0 "delay" )
H->sclSetAttribute( sclParam0xa53dbf3 "value" "9.84e-09" )
H->sclSetResultDir( "../psf" )
H->sclRun( "all" )
sclCkt0xa53dbf0 = H->sclGetCircuit(  "" )
sclParam0xa53dbf4 = H->sclGetParameter( sclCkt0xa53dbf0 "delay" )
H->sclSetAttribute( sclParam0xa53dbf4 "value" "9.85e-09" )
H->sclSetResultDir( "../psf" )
H->sclRun( "all" )
sclCkt0xa53dbf0 = H->sclGetCircuit(  "" )
sclParam0xa53dbf5 = H->sclGetParameter( sclCkt0xa53dbf0 "delay" )
H->sclSetAttribute( sclParam0xa53dbf5 "value" "9.86e-09" )
H->sclSetResultDir( "../psf" )
H->sclRun( "all" )
sclCkt0xa53dbf0 = H->sclGetCircuit(  "" )
sclParam0xa53dbf6 = H->sclGetParameter( sclCkt0xa53dbf0 "delay" )
H->sclSetAttribute( sclParam0xa53dbf6 "value" "9.87e-09" )
H->sclSetResultDir( "../psf" )
H->sclRun( "all" )
sclCkt0xa53dbf0 = H->sclGetCircuit(  "" )
sclParam0xa53dbf7 = H->sclGetParameter( sclCkt0xa53dbf0 "delay" )
H->sclSetAttribute( sclParam0xa53dbf7 "value" "9.88e-09" )
H->sclSetResultDir( "../psf" )
H->sclRun( "all" )
sclCkt0xa53dbf0 = H->sclGetCircuit(  "" )
sclParam0xa53dbf8 = H->sclGetParameter( sclCkt0xa53dbf0 "delay" )
H->sclSetAttribute( sclParam0xa53dbf8 "value" "9.89e-09" )
H->sclSetResultDir( "../psf" )
H->sclRun( "all" )
sclCkt0xa53dbf0 = H->sclGetCircuit(  "" )
sclParam0xa53dbf9 = H->sclGetParameter( sclCkt0xa53dbf0 "delay" )
H->sclSetAttribute( sclParam0xa53dbf9 "value" "9.9e-09" )
H->sclSetResultDir( "../psf" )
H->sclRun( "all" )
sclCkt0xa53dbf0 = H->sclGetCircuit(  "" )
H->sclQuit(  )
