Spectre (R) Circuit Simulator
Version 18.1.0.421.isr9 64bit -- 17 Jul 2019
Simulating `input.scs' on zach-127-12.engr.tamu.edu at 1:09:23 PM, Fri Oct 7, 2022 (process id: 21579).
H = mpsImport( "spectre" "ipi" "v0.0" ?session "spectre1_15767_25" )
H->sclSetResultDir( "../psf" )
H->sclRun( "all" )
sclCkt0xb42bbf0 = H->sclGetCircuit(  "" )
H->sclQuit(  )
