Spectre (R) Circuit Simulator
Version 18.1.0.421.isr9 64bit -- 17 Jul 2019
Simulating `input.scs' on zach-127-11.engr.tamu.edu at 8:12:19 PM, Tue Nov 15, 2022 (process id: 26539).
H = mpsImport( "spectre" "ipi" "v0.0" ?session "spectre1_5940_18" )
H->sclSetResultDir( "../psf" )
H->sclRun( "all" )
sclCkt0xb317bf0 = H->sclGetCircuit(  "" )
H->sclQuit(  )
