Spectre (R) Circuit Simulator
Version 18.1.0.421.isr9 64bit -- 17 Jul 2019
Simulating `input.scs' on zach-127-28.engr.tamu.edu at 6:25:55 PM, Fri Oct 28, 2022 (process id: 24656).
H = mpsImport( "spectre" "ipi" "v0.0" ?session "spectre5_4684_22" )
H->sclSetResultDir( "../psf" )
H->sclRun( "all" )
sclCkt0xaa41bf0 = H->sclGetCircuit(  "" )
H->sclQuit(  )
